/*--------------------------------*- C++ -*----------------------------------*\\
/*--------------------------------*- C++ -*----------------------------------*\\
| =========                 |                                                 |
| \\\\      /  F ield         | OpenFOAM: The Open Source CFD Toolbox           |
|  \\\\    /   O peration     | Version:  v2012                                 |
|   \\\\  /    A nd           | Website:  www.openfoam.com                      |
|    \\\\/     M anipulation  |                                                 |
\\*---------------------------------------------------------------------------*/
FoamFile
{
    version     2.0;
    format      ascii;
    class       dictionary;
    object      blockMeshDict;
}
// * * * * * * * * * * * * * * * * * * * * * * * * * * * * * * * * * * * * * //

scale   0.01;

xmin -1;
xmax 5;
ymin 0;
ymax 0.5;
zmin 0;
zmax 0.1;

vertices
(
    (  $xmin  $ymin  $zmin  )
    (  $xmax  $ymin  $zmin  )
    (  $xmax  $ymax  $zmin  )
    (  $xmin  $ymax  $zmin  )
    (  $xmin  $ymin  $zmax )
    (  $xmax  $ymin  $zmax )
    (  $xmax  $ymax  $zmax )
    (  $xmin  $ymax  $zmax )
);

blocks
(
    hex (0 1 2 3 4 5 6 7) (200 20 1) simpleGrading (1 1 1)
);

edges
(
	polyLine 0 1 ((	-0.5	0.0	0	)
(	-0.4444444444444444	0.0	0	)
(	-0.3888888888888889	0.0	0	)
(	-0.33333333333333337	0.0	0	)
(	-0.2777777777777778	0.0	0	)
(	-0.22629577901924272	0.005917393433232725	0	)
(	-0.17481378026070765	0.01569135715326072	0	)
(	-0.12333178150217258	0.029321891160083983	0	)
(	-0.07184978274363751	0.04680899545370251	0	)
(	-0.020367783985102417	0.06815267003411633	0	)
(	0.031114214773432625	0.0933529149013254	0	)
(	0.08259621353196767	0.12240973005532971	0	)
(	0.1340782122905028	0.15532311549612932	0	)
(	0.1340782122905028	0.15532311549612932	0	)
(	0.16759776536312848	0.1858248078916595	0	)
(	0.2011173184357542	0.21111907165434973	0	)
(	0.2346368715083799	0.23049707745802492	0	)
(	0.2681564245810056	0.24341578918487983	0	)
(	0.3016759776536313	0.2495131816020669	0	)
(	0.33519553072625696	0.24861838551176924	0	)
(	0.3687150837988827	0.24075647607394016	0	)
(	0.4022346368715084	0.22614777011699372	0	)
(	0.43575418994413406	0.2052016521281363	0	)
(	0.4692737430167598	0.17850510193960645	0	)
(	0.5027932960893855	0.146806245603179	0	)
(	0.5363128491620112	0.11099339041209146	0	)
(	0.5698324022346368	0.07207013157874696	0	)
(	0.6033519553072626	0.03112722816180865	0	)
(	0.6368715083798883	-0.010687963627332433	0	)
(	0.6703910614525139	-0.05220364315838916	0	)
(	0.7039106145251397	-0.09225640312985718	0	)
(	0.7374301675977654	-0.12972383210772945	0	)
(	0.770949720670391	-0.16355596822377147	0	)
(	0.8044692737430168	-0.19280472259620435	0	)
(	0.8379888268156425	-0.21665044793077248	0	)
(	0.8715083798882681	-0.23442490776170513	0	)
(	0.9050279329608938	-0.24563000265810814	0	)
(	0.9385474860335196	-0.24995172862525522	0	)
(	0.9720670391061452	-0.24726897653998917	0	)
(	1.005586592178771	-0.23765692603081126	0	)
(	1.0391061452513966	-0.22138493869486092	0	)
(	1.0726256983240223	-0.1989090096908461	0	)
(	1.106145251396648	-0.1708589892393756	0	)
(	1.1396648044692737	-0.1380209321267188	0	)
(	1.1731843575418994	-0.10131506983754834	0	)
(	1.2067039106145252	-0.06177002261071428	0	)
(	1.2402234636871508	-0.02049397408193506	0	)
(	1.2737430167597765	0.021356383704288252	0	)
(	1.3072625698324023	0.06260826464956992	0	)
(	1.3407821229050279	0.1021056539654091	0	)
(	1.3743016759776536	0.1387417035491268	0	)
(	1.4078212290502794	0.17148974954587476	0	)
(	1.441340782122905	0.19943208288156383	0	)
(	1.4748603351955307	0.22178566652076534	0	)
(	1.5083798882681565	0.23792407876655913	0	)
(	1.541899441340782	0.2473950676781475	0	)
(	1.5754189944134078	0.24993322467311868	0	)
(	1.6089385474860336	0.24546742215790612	0	)
(	1.6424581005586592	0.23412280675932576	0	)
(	1.675977653631285	0.2162172923002163	0	)
(	1.7094972067039105	0.1922526507976621	0	)
(	1.7430167597765363	0.16290045114363208	0	)
(	1.776536312849162	0.12898323951293128	0	)
(	1.8100558659217876	0.09145148888597568	0	)
(	1.8435754189944134	0.051356963637353405	0	)
(	1.8770949720670391	0.00982324560292869	0	)
(	1.9106145251396647	-0.03198575241698609	0	)
(	1.9441340782122905	-0.07289840336209988	0	)
(	1.9776536312849162	-0.11176819879581516	0	)
(	2.011173184357542	-0.14750587788159	0	)
(	2.0446927374301676	-0.17910995209131067	0	)
(	2.078212290502793	-0.20569477024190128	0	)
(	2.111731843575419	-0.22651533738458776	0	)
(	2.1452513966480447	-0.24098819203905955	0	)
(	2.17877094972067	-0.2487077567230546	0	)
(	2.212290502793296	-0.2494577035811879	0	)
(	2.2458100558659218	-0.2432170166103409	0	)
(	2.2793296089385473	-0.23016058059790737	0	)
(	2.3128491620111733	-0.2106542802688888	0	)
(	2.346368715083799	-0.18524474698002752	0	)
(	2.3798882681564244	-0.15464404029267462	0	)
(	2.4134078212290504	-0.11970969369763128	0	)
(	2.446927374301676	-0.08142068367706223	0	)
(	2.4804469273743015	-0.040849995530219875	0	)
(	2.5139664804469275	0.0008654452402848766	0	)
(	2.547486033519553	0.04255663335918885	0	)
(	2.5810055865921786	0.08305524319112353	0	)
(	2.6145251396648046	0.12122636910738517	0	)
(	2.64804469273743	0.1560003293130644	0	)
(	2.6815642458100557	0.1864026418856084	0	)
(	2.7150837988826817	0.21158133299659843	0	)
(	2.7486033519553073	0.23083081204961942	0	)
(	2.782122905027933	0.24361164467352794	0	)
(	2.815642458100559	0.24956566946612802	0	)
(	2.8491620111731844	0.24852603486686953	0	)
(	2.88268156424581	0.24052187489204077	0	)
(	2.916201117318436	0.22577749270281616	0	)
(	2.9497206703910615	0.20470607488529763	0	)
(	2.983240223463687	0.1778981125893071	0	)
(	3.016759776536313	0.14610485400410456	0	)
(	3.0502793296089385	0.11021725188764753	0	)
(	3.083798882681564	0.07124099610958026	0	)
(	3.11731843575419	0.03026833087907045	0	)
(	3.1508379888268156	-0.011552553567572028	0	)
(	3.184357541899441	-0.05304969707287977	0	)
(	3.217877094972067	-0.09306021177638733	0	)
(	3.2513966480446927	-0.13046287009688062	0	)
(	3.2849162011173183	-0.16420952525518615	0	)
(	3.318435754189944	-0.19335448383002152	0	)
(	3.35195530726257	-0.21708100723030593	0	)
(	3.3854748603351954	-0.2347241994245869	0	)
(	3.418994413407821	-0.24578963953736632	0	)
(	3.452513966480447	-0.24996723716504246	0	)
(	3.4860335195530725	-0.2471399221394841	0	)
(	3.519553072625698	-0.2373869252231776	0	)
(	3.553072625698324	-0.22098155779996992	0	)
(	3.5865921787709496	-0.19838355278185085	0	)
(	3.620111731843575	-0.170226181365016	0	)
(	3.653631284916201	-0.13729850666652166	0	)
(	3.6871508379888267	-0.10052327155360581	0	)
(	3.7206703910614523	-0.06093104032217363	0	)
(	3.7541899441340782	-0.019631318860548048	0	)
(	3.787709497206704	0.022218537392522785	0	)
(	3.8212290502793294	0.06344575639327762	0	)
(	3.8547486033519553	0.1028950144628579	0	)
(	3.888268156424581	0.13946081229604756	0	)
(	3.9217877094972065	0.1721184547255043	0	)
(	3.9553072625698324	0.19995276608551443	0	)
(	3.988826815642458	0.22218373647537576	0	)
(	4.022346368715084	0.23818838022887248	0	)
(	4.055865921787709	0.24751819404288763	0	)
(	4.089385474860335	0.24991172553038352	0	)
(	4.122905027932961	0.245301899985119	0	)
(	4.156424581005586	0.2338179000378162	0	)
(	4.189944134078212	0.21578154552955883	0	)
(	4.223463687150838	0.19169827505040263	0	)
(	4.256983240223463	0.16224298187046046	0	)
(	4.290502793296089	0.1282411011877216	0	)
(	4.324022346368715	0.09064547869080457	0	)
(	4.35754189944134	0.05050966865634929	0	)
(	4.391061452513966	0.008958409857109892	0	)
(	4.424581005586592	-0.03284389335608003	0	)
(	4.4581005586592175	-0.07372580153366055	0	)
(	4.4916201117318435	-0.11254166775354323	0	)
(	4.5251396648044695	-0.14820374245497017	0	)
(	4.558659217877095	-0.17971265579591691	0	)
(	4.592178770949721	-0.20618542331708342	0	)
(	4.625698324022347	-0.22688019010068528	0	)
(	4.659217877094972	-0.24121702001052325	0	)
(	4.692737430167598	-0.24879414742970432	0	)
(	4.726256983240224	-0.24939923606833764	0	)
(	4.759776536312849	-0.2430153293319946	0	)
(	4.793296089385475	-0.22982132550183235	0	)
(	4.826815642458101	-0.21018696441025822	0	)
(	4.860335195530726	-0.18466246610214113	0	)
(	4.893854748603352	-0.15396311184071187	0	)
(	4.927374301675978	-0.11894919954961453	0	)
(	4.960893854748603	-0.08060193540622275	0	)
(	4.994413407821229	-0.039995937183894714	0	)
(	5.027932960893855	0.0017308801091057322	0	)
(	5.06145251396648	0.043409192389546644	0	)
(	5.094972067039106	0.08387103484584409	0	)
(	5.128491620111732	0.12198253219333982	0	)
(	5.162011173184357	0.15667567362777354	0	)
(	5.195530726256983	0.18697824203713348	0	)
(	5.229050279329609	0.2120410587559121	0	)
(	5.262569832402234	0.23116178037322768	0	)
(	5.29608938547486	0.24380458072916047	0	)
(	5.329608938547486	0.24961516654435867	0	)
(	5.363128491620111	0.24843070589508234	0	)
(	5.396648044692737	0.24028439130481333	0	)
(	5.430167597765363	0.22540450957944644	0	)
(	5.4636871508379885	0.20420804445236504	0	)
(	5.4972067039106145	0.17728899131455048	0	)
(	5.5307262569832405	0.14540171148981804	0	)
(	5.564245810055866	0.1094397925236996	0	)
(	5.597765363128492	0.07041100689092818	0	)
(	5.631284916201118	0.029409070861764596	0	)
(	5.664804469273743	-0.01241700506243334	0	)
(	5.698324022346369	-0.0538951152417466	0	)
(	5.731843575418995	-0.09386290519275259	0	)
(	5.76536312849162	-0.13120034462378163	0	)
(	5.798882681564246	-0.16486111440567175	0	)
(	5.832402234636872	-0.19390192791079655	0	)
(	5.865921787709497	-0.21750896503900957	0	)
(	5.899441340782123	-0.23502067816127112	0	)
(	5.953489403210074	-0.23827161657021653	0	)
(	6.007537465638024	-0.2410097292172251	0	)
(	6.061585528065975	-0.24323501610229684	0	)
(	6.115633590493926	-0.24494747722543175	0	)
(	6.169681652921876	-0.2461471125866298	0	)
(	6.223729715349827	-0.24683392218589106	0	)
(	6.277777777777778	-0.24700790602321546	0	)
(	6.277777777777778	-0.24700790602321546	0	)
(	6.333333333333333	-0.24700790602321546	0	)
(	6.388888888888889	-0.24700790602321546	0	)
(	6.444444444444445	-0.24700790602321546	0	)
(	6.5	-0.24700790602321546	0	)
)
	polyLine 4 5 ((	-0.5	0.0	0.1	)
(	-0.4444444444444444	0.0	0.1	)
(	-0.3888888888888889	0.0	0.1	)
(	-0.33333333333333337	0.0	0.1	)
(	-0.2777777777777778	0.0	0.1	)
(	-0.22629577901924272	0.005917393433232725	0.1	)
(	-0.17481378026070765	0.01569135715326072	0.1	)
(	-0.12333178150217258	0.029321891160083983	0.1	)
(	-0.07184978274363751	0.04680899545370251	0.1	)
(	-0.020367783985102417	0.06815267003411633	0.1	)
(	0.031114214773432625	0.0933529149013254	0.1	)
(	0.08259621353196767	0.12240973005532971	0.1	)
(	0.1340782122905028	0.15532311549612932	0.1	)
(	0.1340782122905028	0.15532311549612932	0.1	)
(	0.16759776536312848	0.1858248078916595	0.1	)
(	0.2011173184357542	0.21111907165434973	0.1	)
(	0.2346368715083799	0.23049707745802492	0.1	)
(	0.2681564245810056	0.24341578918487983	0.1	)
(	0.3016759776536313	0.2495131816020669	0.1	)
(	0.33519553072625696	0.24861838551176924	0.1	)
(	0.3687150837988827	0.24075647607394016	0.1	)
(	0.4022346368715084	0.22614777011699372	0.1	)
(	0.43575418994413406	0.2052016521281363	0.1	)
(	0.4692737430167598	0.17850510193960645	0.1	)
(	0.5027932960893855	0.146806245603179	0.1	)
(	0.5363128491620112	0.11099339041209146	0.1	)
(	0.5698324022346368	0.07207013157874696	0.1	)
(	0.6033519553072626	0.03112722816180865	0.1	)
(	0.6368715083798883	-0.010687963627332433	0.1	)
(	0.6703910614525139	-0.05220364315838916	0.1	)
(	0.7039106145251397	-0.09225640312985718	0.1	)
(	0.7374301675977654	-0.12972383210772945	0.1	)
(	0.770949720670391	-0.16355596822377147	0.1	)
(	0.8044692737430168	-0.19280472259620435	0.1	)
(	0.8379888268156425	-0.21665044793077248	0.1	)
(	0.8715083798882681	-0.23442490776170513	0.1	)
(	0.9050279329608938	-0.24563000265810814	0.1	)
(	0.9385474860335196	-0.24995172862525522	0.1	)
(	0.9720670391061452	-0.24726897653998917	0.1	)
(	1.005586592178771	-0.23765692603081126	0.1	)
(	1.0391061452513966	-0.22138493869486092	0.1	)
(	1.0726256983240223	-0.1989090096908461	0.1	)
(	1.106145251396648	-0.1708589892393756	0.1	)
(	1.1396648044692737	-0.1380209321267188	0.1	)
(	1.1731843575418994	-0.10131506983754834	0.1	)
(	1.2067039106145252	-0.06177002261071428	0.1	)
(	1.2402234636871508	-0.02049397408193506	0.1	)
(	1.2737430167597765	0.021356383704288252	0.1	)
(	1.3072625698324023	0.06260826464956992	0.1	)
(	1.3407821229050279	0.1021056539654091	0.1	)
(	1.3743016759776536	0.1387417035491268	0.1	)
(	1.4078212290502794	0.17148974954587476	0.1	)
(	1.441340782122905	0.19943208288156383	0.1	)
(	1.4748603351955307	0.22178566652076534	0.1	)
(	1.5083798882681565	0.23792407876655913	0.1	)
(	1.541899441340782	0.2473950676781475	0.1	)
(	1.5754189944134078	0.24993322467311868	0.1	)
(	1.6089385474860336	0.24546742215790612	0.1	)
(	1.6424581005586592	0.23412280675932576	0.1	)
(	1.675977653631285	0.2162172923002163	0.1	)
(	1.7094972067039105	0.1922526507976621	0.1	)
(	1.7430167597765363	0.16290045114363208	0.1	)
(	1.776536312849162	0.12898323951293128	0.1	)
(	1.8100558659217876	0.09145148888597568	0.1	)
(	1.8435754189944134	0.051356963637353405	0.1	)
(	1.8770949720670391	0.00982324560292869	0.1	)
(	1.9106145251396647	-0.03198575241698609	0.1	)
(	1.9441340782122905	-0.07289840336209988	0.1	)
(	1.9776536312849162	-0.11176819879581516	0.1	)
(	2.011173184357542	-0.14750587788159	0.1	)
(	2.0446927374301676	-0.17910995209131067	0.1	)
(	2.078212290502793	-0.20569477024190128	0.1	)
(	2.111731843575419	-0.22651533738458776	0.1	)
(	2.1452513966480447	-0.24098819203905955	0.1	)
(	2.17877094972067	-0.2487077567230546	0.1	)
(	2.212290502793296	-0.2494577035811879	0.1	)
(	2.2458100558659218	-0.2432170166103409	0.1	)
(	2.2793296089385473	-0.23016058059790737	0.1	)
(	2.3128491620111733	-0.2106542802688888	0.1	)
(	2.346368715083799	-0.18524474698002752	0.1	)
(	2.3798882681564244	-0.15464404029267462	0.1	)
(	2.4134078212290504	-0.11970969369763128	0.1	)
(	2.446927374301676	-0.08142068367706223	0.1	)
(	2.4804469273743015	-0.040849995530219875	0.1	)
(	2.5139664804469275	0.0008654452402848766	0.1	)
(	2.547486033519553	0.04255663335918885	0.1	)
(	2.5810055865921786	0.08305524319112353	0.1	)
(	2.6145251396648046	0.12122636910738517	0.1	)
(	2.64804469273743	0.1560003293130644	0.1	)
(	2.6815642458100557	0.1864026418856084	0.1	)
(	2.7150837988826817	0.21158133299659843	0.1	)
(	2.7486033519553073	0.23083081204961942	0.1	)
(	2.782122905027933	0.24361164467352794	0.1	)
(	2.815642458100559	0.24956566946612802	0.1	)
(	2.8491620111731844	0.24852603486686953	0.1	)
(	2.88268156424581	0.24052187489204077	0.1	)
(	2.916201117318436	0.22577749270281616	0.1	)
(	2.9497206703910615	0.20470607488529763	0.1	)
(	2.983240223463687	0.1778981125893071	0.1	)
(	3.016759776536313	0.14610485400410456	0.1	)
(	3.0502793296089385	0.11021725188764753	0.1	)
(	3.083798882681564	0.07124099610958026	0.1	)
(	3.11731843575419	0.03026833087907045	0.1	)
(	3.1508379888268156	-0.011552553567572028	0.1	)
(	3.184357541899441	-0.05304969707287977	0.1	)
(	3.217877094972067	-0.09306021177638733	0.1	)
(	3.2513966480446927	-0.13046287009688062	0.1	)
(	3.2849162011173183	-0.16420952525518615	0.1	)
(	3.318435754189944	-0.19335448383002152	0.1	)
(	3.35195530726257	-0.21708100723030593	0.1	)
(	3.3854748603351954	-0.2347241994245869	0.1	)
(	3.418994413407821	-0.24578963953736632	0.1	)
(	3.452513966480447	-0.24996723716504246	0.1	)
(	3.4860335195530725	-0.2471399221394841	0.1	)
(	3.519553072625698	-0.2373869252231776	0.1	)
(	3.553072625698324	-0.22098155779996992	0.1	)
(	3.5865921787709496	-0.19838355278185085	0.1	)
(	3.620111731843575	-0.170226181365016	0.1	)
(	3.653631284916201	-0.13729850666652166	0.1	)
(	3.6871508379888267	-0.10052327155360581	0.1	)
(	3.7206703910614523	-0.06093104032217363	0.1	)
(	3.7541899441340782	-0.019631318860548048	0.1	)
(	3.787709497206704	0.022218537392522785	0.1	)
(	3.8212290502793294	0.06344575639327762	0.1	)
(	3.8547486033519553	0.1028950144628579	0.1	)
(	3.888268156424581	0.13946081229604756	0.1	)
(	3.9217877094972065	0.1721184547255043	0.1	)
(	3.9553072625698324	0.19995276608551443	0.1	)
(	3.988826815642458	0.22218373647537576	0.1	)
(	4.022346368715084	0.23818838022887248	0.1	)
(	4.055865921787709	0.24751819404288763	0.1	)
(	4.089385474860335	0.24991172553038352	0.1	)
(	4.122905027932961	0.245301899985119	0.1	)
(	4.156424581005586	0.2338179000378162	0.1	)
(	4.189944134078212	0.21578154552955883	0.1	)
(	4.223463687150838	0.19169827505040263	0.1	)
(	4.256983240223463	0.16224298187046046	0.1	)
(	4.290502793296089	0.1282411011877216	0.1	)
(	4.324022346368715	0.09064547869080457	0.1	)
(	4.35754189944134	0.05050966865634929	0.1	)
(	4.391061452513966	0.008958409857109892	0.1	)
(	4.424581005586592	-0.03284389335608003	0.1	)
(	4.4581005586592175	-0.07372580153366055	0.1	)
(	4.4916201117318435	-0.11254166775354323	0.1	)
(	4.5251396648044695	-0.14820374245497017	0.1	)
(	4.558659217877095	-0.17971265579591691	0.1	)
(	4.592178770949721	-0.20618542331708342	0.1	)
(	4.625698324022347	-0.22688019010068528	0.1	)
(	4.659217877094972	-0.24121702001052325	0.1	)
(	4.692737430167598	-0.24879414742970432	0.1	)
(	4.726256983240224	-0.24939923606833764	0.1	)
(	4.759776536312849	-0.2430153293319946	0.1	)
(	4.793296089385475	-0.22982132550183235	0.1	)
(	4.826815642458101	-0.21018696441025822	0.1	)
(	4.860335195530726	-0.18466246610214113	0.1	)
(	4.893854748603352	-0.15396311184071187	0.1	)
(	4.927374301675978	-0.11894919954961453	0.1	)
(	4.960893854748603	-0.08060193540622275	0.1	)
(	4.994413407821229	-0.039995937183894714	0.1	)
(	5.027932960893855	0.0017308801091057322	0.1	)
(	5.06145251396648	0.043409192389546644	0.1	)
(	5.094972067039106	0.08387103484584409	0.1	)
(	5.128491620111732	0.12198253219333982	0.1	)
(	5.162011173184357	0.15667567362777354	0.1	)
(	5.195530726256983	0.18697824203713348	0.1	)
(	5.229050279329609	0.2120410587559121	0.1	)
(	5.262569832402234	0.23116178037322768	0.1	)
(	5.29608938547486	0.24380458072916047	0.1	)
(	5.329608938547486	0.24961516654435867	0.1	)
(	5.363128491620111	0.24843070589508234	0.1	)
(	5.396648044692737	0.24028439130481333	0.1	)
(	5.430167597765363	0.22540450957944644	0.1	)
(	5.4636871508379885	0.20420804445236504	0.1	)
(	5.4972067039106145	0.17728899131455048	0.1	)
(	5.5307262569832405	0.14540171148981804	0.1	)
(	5.564245810055866	0.1094397925236996	0.1	)
(	5.597765363128492	0.07041100689092818	0.1	)
(	5.631284916201118	0.029409070861764596	0.1	)
(	5.664804469273743	-0.01241700506243334	0.1	)
(	5.698324022346369	-0.0538951152417466	0.1	)
(	5.731843575418995	-0.09386290519275259	0.1	)
(	5.76536312849162	-0.13120034462378163	0.1	)
(	5.798882681564246	-0.16486111440567175	0.1	)
(	5.832402234636872	-0.19390192791079655	0.1	)
(	5.865921787709497	-0.21750896503900957	0.1	)
(	5.899441340782123	-0.23502067816127112	0.1	)
(	5.953489403210074	-0.23827161657021653	0.1	)
(	6.007537465638024	-0.2410097292172251	0.1	)
(	6.061585528065975	-0.24323501610229684	0.1	)
(	6.115633590493926	-0.24494747722543175	0.1	)
(	6.169681652921876	-0.2461471125866298	0.1	)
(	6.223729715349827	-0.24683392218589106	0.1	)
(	6.277777777777778	-0.24700790602321546	0.1	)
(	6.277777777777778	-0.24700790602321546	0.1	)
(	6.333333333333333	-0.24700790602321546	0.1	)
(	6.388888888888889	-0.24700790602321546	0.1	)
(	6.444444444444445	-0.24700790602321546	0.1	)
(	6.5	-0.24700790602321546	0.1	)
)
	polyLine 3 2 ((	-0.5	0.5	0	)
(	-0.4444444444444444	0.5	0	)
(	-0.3888888888888889	0.5	0	)
(	-0.33333333333333337	0.5	0	)
(	-0.2777777777777778	0.5	0	)
(	-0.22629577901924272	0.5094678294931725	0	)
(	-0.17481378026070765	0.5251061714452172	0	)
(	-0.12333178150217258	0.5469150258561343	0	)
(	-0.07184978274363751	0.5748943927259238	0	)
(	-0.020367783985102417	0.609044272054586	0	)
(	0.031114214773432625	0.6493646638421205	0	)
(	0.08259621353196767	0.6958555680885277	0	)
(	0.1340782122905028	0.7485169847938069	0	)
(	0.1340782122905028	0.7485169847938069	0	)
(	0.16759776536312848	0.7973196926266553	0	)
(	0.2011173184357542	0.8377905146469595	0	)
(	0.2346368715083799	0.8687953239328399	0	)
(	0.2681564245810056	0.8894652626958077	0	)
(	0.3016759776536313	0.8992210905633071	0	)
(	0.33519553072625696	0.8977894168188307	0	)
(	0.3687150837988827	0.8852103617183043	0	)
(	0.4022346368715084	0.86183643218719	0	)
(	0.43575418994413406	0.8283226434050182	0	)
(	0.4692737430167598	0.7856081631033703	0	)
(	0.5027932960893855	0.7348899929650864	0	)
(	0.5363128491620112	0.6775894246593464	0	)
(	0.5698324022346368	0.6153122105259952	0	)
(	0.6033519553072626	0.5498035650588938	0	)
(	0.6368715083798883	0.4828992581962681	0	)
(	0.6703910614525139	0.41647417094657735	0	)
(	0.7039106145251397	0.35238975499222847	0	)
(	0.7374301675977654	0.2924418686276329	0	)
(	0.770949720670391	0.23831045084196562	0	)
(	0.8044692737430168	0.19151244384607302	0	)
(	0.8379888268156425	0.15335928331076398	0	)
(	0.8715083798882681	0.12492014758127179	0	)
(	0.9050279329608938	0.10699199574702695	0	)
(	0.9385474860335196	0.10007723419959164	0	)
(	0.9720670391061452	0.1043696375360173	0	)
(	1.005586592178771	0.11974891835070195	0	)
(	1.0391061452513966	0.1457840980882225	0	)
(	1.0726256983240223	0.18174558449464623	0	)
(	1.106145251396648	0.22662561721699903	0	)
(	1.1396648044692737	0.2791665085972499	0	)
(	1.1731843575418994	0.33789588825992267	0	)
(	1.2067039106145252	0.40116796382285713	0	)
(	1.2402234636871508	0.4672096414689039	0	)
(	1.2737430167597765	0.5341702139268611	0	)
(	1.3072625698324023	0.6001732234393119	0	)
(	1.3407821229050279	0.6633690463446545	0	)
(	1.3743016759776536	0.7219867256786029	0	)
(	1.4078212290502794	0.7743835992733996	0	)
(	1.441340782122905	0.8190913326105022	0	)
(	1.4748603351955307	0.8548570664332246	0	)
(	1.5083798882681565	0.8806785260264947	0	)
(	1.541899441340782	0.895832108285036	0	)
(	1.5754189944134078	0.8998931594769899	0	)
(	1.6089385474860336	0.8927478754526499	0	)
(	1.6424581005586592	0.8745964908149213	0	)
(	1.675977653631285	0.8459476676803461	0	)
(	1.7094972067039105	0.8076042412762594	0	)
(	1.7430167597765363	0.7606407218298114	0	)
(	1.776536312849162	0.7063731832206901	0	)
(	1.8100558659217876	0.6463223822175611	0	)
(	1.8435754189944134	0.5821711418197655	0	)
(	1.8770949720670391	0.5157171929646859	0	)
(	1.9106145251396647	0.4488227961328223	0	)
(	1.9441340782122905	0.3833625546206402	0	)
(	1.9776536312849162	0.32117088192669574	0	)
(	2.011173184357542	0.263990595389456	0	)
(	2.0446927374301676	0.2134240766539029	0	)
(	2.078212290502793	0.17088836761295795	0	)
(	2.111731843575419	0.13757546018465955	0	)
(	2.1452513966480447	0.11441889273750472	0	)
(	2.17877094972067	0.10206758924311266	0	)
(	2.212290502793296	0.10086767427009935	0	)
(	2.2458100558659218	0.11085277342345456	0	)
(	2.2793296089385473	0.1317430710433482	0	)
(	2.3128491620111733	0.1629531515697779	0	)
(	2.346368715083799	0.20360840483195597	0	)
(	2.3798882681564244	0.25256953553172057	0	)
(	2.4134078212290504	0.30846449008378996	0	)
(	2.446927374301676	0.36972690611670045	0	)
(	2.4804469273743015	0.4346400071516482	0	)
(	2.5139664804469275	0.5013847123844558	0	)
(	2.547486033519553	0.5680906133747021	0	)
(	2.5810055865921786	0.6328883891057977	0	)
(	2.6145251396648046	0.6939621905718163	0	)
(	2.64804469273743	0.7496005269009031	0	)
(	2.6815642458100557	0.7982442270169734	0	)
(	2.7150837988826817	0.8385301327945576	0	)
(	2.7486033519553073	0.8693292992793911	0	)
(	2.782122905027933	0.8897786314776448	0	)
(	2.815642458100559	0.8993050711458048	0	)
(	2.8491620111731844	0.8976416557869913	0	)
(	2.88268156424581	0.8848349998272653	0	)
(	2.916201117318436	0.8612439883245059	0	)
(	2.9497206703910615	0.8275297198164762	0	)
(	2.983240223463687	0.7846369801428914	0	)
(	3.016759776536313	0.7337677664065673	0	)
(	3.0502793296089385	0.676347603020236	0	)
(	3.083798882681564	0.6139855937753285	0	)
(	3.11731843575419	0.5484293294065127	0	)
(	3.1508379888268156	0.4815159142918848	0	)
(	3.184357541899441	0.41512048468339235	0	)
(	3.217877094972067	0.35110366115778024	0	)
(	3.2513966480446927	0.291259407844991	0	)
(	3.2849162011173183	0.23726475959170218	0	)
(	3.318435754189944	0.19063282587196556	0	)
(	3.35195530726257	0.15267038843151048	0	)
(	3.3854748603351954	0.12444128092066098	0	)
(	3.418994413407821	0.10673657674021386	0	)
(	3.452513966480447	0.10005242053593205	0	)
(	3.4860335195530725	0.10457612457682541	0	)
(	3.519553072625698	0.12018091964291583	0	)
(	3.553072625698324	0.14642950752004813	0	)
(	3.5865921787709496	0.1825863155490386	0	)
(	3.620111731843575	0.22763810981597438	0	)
(	3.653631284916201	0.28032238933356535	0	)
(	3.6871508379888267	0.3391627655142307	0	)
(	3.7206703910614523	0.4025103354845222	0	)
(	3.7541899441340782	0.4685898898231231	0	)
(	3.787709497206704	0.5355496598280365	0	)
(	3.8212290502793294	0.6015132102292442	0	)
(	3.8547486033519553	0.6646320231405727	0	)
(	3.888268156424581	0.7231372996736761	0	)
(	3.9217877094972065	0.7753895275608069	0	)
(	3.9553072625698324	0.8199244257368231	0	)
(	3.988826815642458	0.8554939783606013	0	)
(	4.022346368715084	0.881101408366196	0	)
(	4.055865921787709	0.8960291104686202	0	)
(	4.089385474860335	0.8998587608486137	0	)
(	4.122905027932961	0.8924830399761905	0	)
(	4.156424581005586	0.8741086400605059	0	)
(	4.189944134078212	0.8452504728472942	0	)
(	4.223463687150838	0.8067172400806442	0	)
(	4.256983240223463	0.7595887709927367	0	)
(	4.290502793296089	0.7051857619003545	0	)
(	4.324022346368715	0.6450327659052874	0	)
(	4.35754189944134	0.5808154698501589	0	)
(	4.391061452513966	0.5143334557713758	0	)
(	4.424581005586592	0.4474497706302719	0	)
(	4.4581005586592175	0.3820387175461431	0	)
(	4.4916201117318435	0.3199333315943308	0	)
(	4.5251396648044695	0.26287401207204775	0	)
(	4.558659217877095	0.21245975072653295	0	)
(	4.592178770949721	0.17010332269266648	0	)
(	4.625698324022347	0.13699169583890353	0	)
(	4.659217877094972	0.11405276798316277	0	)
(	4.692737430167598	0.10192936411247305	0	)
(	4.726256983240224	0.10096122229065974	0	)
(	4.759776536312849	0.1111754730688086	0	)
(	4.793296089385475	0.13228587919706825	0	)
(	4.826815642458101	0.16370085694358683	0	)
(	4.860335195530726	0.20454005423657418	0	)
(	4.893854748603352	0.253659021054861	0	)
(	4.927374301675978	0.30968128072061674	0	)
(	4.960893854748603	0.3710369033500436	0	)
(	4.994413407821229	0.43600650050576845	0	)
(	5.027932960893855	0.5027694081745692	0	)
(	5.06145251396648	0.5694547078232747	0	)
(	5.094972067039106	0.6341936557533505	0	)
(	5.128491620111732	0.6951720515093437	0	)
(	5.162011173184357	0.7506810778044377	0	)
(	5.195530726256983	0.7991651872594137	0	)
(	5.229050279329609	0.8392656940094594	0	)
(	5.262569832402234	0.8698588485971643	0	)
(	5.29608938547486	0.8900873291666568	0	)
(	5.329608938547486	0.8993842664709739	0	)
(	5.363128491620111	0.8974891294321318	0	)
(	5.396648044692737	0.8844550260877013	0	)
(	5.430167597765363	0.8606472153271143	0	)
(	5.4636871508379885	0.826732871123784	0	)
(	5.4972067039106145	0.7836623861032808	0	)
(	5.5307262569832405	0.7326427383837089	0	)
(	5.564245810055866	0.6751036680379194	0	)
(	5.597765363128492	0.6126576110254851	0	)
(	5.631284916201118	0.5470545133788234	0	)
(	5.664804469273743	0.48013279190010666	0	)
(	5.698324022346369	0.4137678156132054	0	)
(	5.731843575418995	0.34981935169159584	0	)
(	5.76536312849162	0.29007944860194934	0	)
(	5.798882681564246	0.2362222169509252	0	)
(	5.832402234636872	0.18975691534272549	0	)
(	5.865921787709497	0.15198565593758467	0	)
(	5.899441340782123	0.12396691494196621	0	)
(	5.953489403210074	0.11876541348765361	0	)
(	6.007537465638024	0.11438443325243991	0	)
(	6.061585528065975	0.11082397423632515	0	)
(	6.115633590493926	0.10808403643930928	0	)
(	6.169681652921876	0.10616461986139235	0	)
(	6.223729715349827	0.10506572450257434	0	)
(	6.277777777777778	0.10478735036285525	0	)
(	6.277777777777778	0.10478735036285525	0	)
(	6.333333333333333	0.10478735036285525	0	)
(	6.388888888888889	0.10478735036285525	0	)
(	6.444444444444445	0.10478735036285525	0	)
(	6.5	0.10478735036285525	0	)
)
	polyLine 7 6 ((	-0.5	0.5	0.1	)
(	-0.4444444444444444	0.5	0.1	)
(	-0.3888888888888889	0.5	0.1	)
(	-0.33333333333333337	0.5	0.1	)
(	-0.2777777777777778	0.5	0.1	)
(	-0.22629577901924272	0.5094678294931725	0.1	)
(	-0.17481378026070765	0.5251061714452172	0.1	)
(	-0.12333178150217258	0.5469150258561343	0.1	)
(	-0.07184978274363751	0.5748943927259238	0.1	)
(	-0.020367783985102417	0.609044272054586	0.1	)
(	0.031114214773432625	0.6493646638421205	0.1	)
(	0.08259621353196767	0.6958555680885277	0.1	)
(	0.1340782122905028	0.7485169847938069	0.1	)
(	0.1340782122905028	0.7485169847938069	0.1	)
(	0.16759776536312848	0.7973196926266553	0.1	)
(	0.2011173184357542	0.8377905146469595	0.1	)
(	0.2346368715083799	0.8687953239328399	0.1	)
(	0.2681564245810056	0.8894652626958077	0.1	)
(	0.3016759776536313	0.8992210905633071	0.1	)
(	0.33519553072625696	0.8977894168188307	0.1	)
(	0.3687150837988827	0.8852103617183043	0.1	)
(	0.4022346368715084	0.86183643218719	0.1	)
(	0.43575418994413406	0.8283226434050182	0.1	)
(	0.4692737430167598	0.7856081631033703	0.1	)
(	0.5027932960893855	0.7348899929650864	0.1	)
(	0.5363128491620112	0.6775894246593464	0.1	)
(	0.5698324022346368	0.6153122105259952	0.1	)
(	0.6033519553072626	0.5498035650588938	0.1	)
(	0.6368715083798883	0.4828992581962681	0.1	)
(	0.6703910614525139	0.41647417094657735	0.1	)
(	0.7039106145251397	0.35238975499222847	0.1	)
(	0.7374301675977654	0.2924418686276329	0.1	)
(	0.770949720670391	0.23831045084196562	0.1	)
(	0.8044692737430168	0.19151244384607302	0.1	)
(	0.8379888268156425	0.15335928331076398	0.1	)
(	0.8715083798882681	0.12492014758127179	0.1	)
(	0.9050279329608938	0.10699199574702695	0.1	)
(	0.9385474860335196	0.10007723419959164	0.1	)
(	0.9720670391061452	0.1043696375360173	0.1	)
(	1.005586592178771	0.11974891835070195	0.1	)
(	1.0391061452513966	0.1457840980882225	0.1	)
(	1.0726256983240223	0.18174558449464623	0.1	)
(	1.106145251396648	0.22662561721699903	0.1	)
(	1.1396648044692737	0.2791665085972499	0.1	)
(	1.1731843575418994	0.33789588825992267	0.1	)
(	1.2067039106145252	0.40116796382285713	0.1	)
(	1.2402234636871508	0.4672096414689039	0.1	)