/*--------------------------------*- C++ -*----------------------------------*\\
/*--------------------------------*- C++ -*----------------------------------*\\
| =========                 |                                                 |
| \\\\      /  F ield         | OpenFOAM: The Open Source CFD Toolbox           |
|  \\\\    /   O peration     | Version:  v2012                                 |
|   \\\\  /    A nd           | Website:  www.openfoam.com                      |
|    \\\\/     M anipulation  |                                                 |
\\*---------------------------------------------------------------------------*/
FoamFile
{
    version     2.0;
    format      ascii;
    class       dictionary;
    object      blockMeshDict;
}
// * * * * * * * * * * * * * * * * * * * * * * * * * * * * * * * * * * * * * //

scale   0.01;

xmin -1;
xmax 5;
ymin 0;
ymax 0.5;
zmin 0;
zmax 0.1;

vertices
(
    (  $xmin  $ymin  $zmin  )
    (  $xmax  $ymin  $zmin  )
    (  $xmax  $ymax  $zmin  )
    (  $xmin  $ymax  $zmin  )
    (  $xmin  $ymin  $zmax )
    (  $xmax  $ymin  $zmax )
    (  $xmax  $ymax  $zmax )
    (  $xmin  $ymax  $zmax )
);

blocks
(
    hex (0 1 2 3 4 5 6 7) (200 20 1) simpleGrading (1 1 1)
);

edges
(
	polyLine 0 1 ((	-0.5	0.0	0	)
(	0.0	0.0	0	)
(	0.02458100558659218	0.03064895872875474	0	)
(	0.04916201117318436	0.0608355276379738	0	)
(	0.07374301675977654	0.09010429281706192	0	)
(	0.09832402234636872	0.11801368693027486	0	)
(	0.1229050279329609	0.1441426509843343	0	)
(	0.14748603351955308	0.16809698669405426	0	)
(	0.17206703910614526	0.18951530361012325	0	)
(	0.19664804469273744	0.20807447128686357	0	)
(	0.22122905027932963	0.22349449423507353	0	)
(	0.2458100558659218	0.23554273611329174	0	)
(	0.270391061452514	0.244037429428629	0	)
(	0.29497206703910617	0.24885041779757308	0	)
(	0.3195530726256983	0.24990908939526438	0	)
(	0.34413407821229053	0.24719747242398749	0	)
(	0.36871508379888274	0.24075647607394013	0	)
(	0.3932960893854749	0.23068327334099106	0	)
(	0.41787709497206704	0.21712983501263278	0	)
(	0.44245810055865925	0.2003006369393566	0	)
(	0.46703910614525146	0.1804495751810222	0	)
(	0.4916201117318436	0.15787613556829894	0	)
(	0.5162011173184358	0.13292087546762782	0	)
(	0.540782122905028	0.10596028591469235	0	)
(	0.5653631284916202	0.07740111162954309	0	)
(	0.5899441340782123	0.04767421460526302	0	)
(	0.6145251396648045	0.017228073848009152	0	)
(	0.6391061452513966	-0.013477980664489346	0	)
(	0.6636871508379889	-0.043980697729138166	0	)
(	0.6882681564245811	-0.07381989382180204	0	)
(	0.7128491620111732	-0.10254539572066007	0	)
(	0.7374301675977655	-0.12972383210772964	0	)
(	0.7620111731843576	-0.15494517168610727	0	)
(	0.7865921787709498	-0.17782890917470667	0	)
(	0.8111731843575419	-0.1980298058546109	0	)
(	0.8357541899441341	-0.2152430980614831	0	)
(	0.8603351955307263	-0.22920909504538353	0	)
(	0.8849162011173185	-0.2397170968317328	0	)
(	0.9094972067039107	-0.24660857297606584	0	)
(	0.9340782122905029	-0.24977955425584175	0	)
(	0.9586592178770951	-0.2491822012167194	0	)
(	0.9832402234636872	-0.24482552590920295	0	)
(	1.0078212290502795	-0.23677525592707596	0	)
(	1.0324022346368715	-0.2251528427988291	0	)
(	1.0569832402234638	-0.21013362969212074	0	)
(	1.081564245810056	-0.19194420607445767	0	)
(	1.106145251396648	-0.1708589892393756	0	)
(	1.1307262569832404	-0.1471960842714067	0	)
(	1.1553072625698324	-0.12131248490905526	0	)
(	1.1798882681564247	-0.09359868770863149	0	)
(	1.204469273743017	-0.0644728007631241	0	)
(	1.229050279329609	-0.034374235855743764	0	)
(	1.2536312849162012	-0.003757079212354161	0	)
(	1.2782122905027933	0.026916759134135035	0	)
(	1.3027932960893855	0.057184514014342075	0	)
(	1.3273743016759778	0.08658954669412018	0	)
(	1.3519553072625698	0.1146882340189413	0	)
(	1.3765363128491621	0.14105666119691054	0	)
(	1.4011173184357544	0.1652970172487975	0	)
(	1.4256983240223464	0.1870435966392361	0	)
(	1.4502793296089387	0.2059683165446353	0	)
(	1.474860335195531	0.22178566652076553	0	)
(	1.499441340782123	0.23425701589616638	0	)
(	1.5240223463687153	0.24319421390728063	0	)
(	1.5486033519553073	0.24846242826136739	0	)
(	1.5731843575418996	0.2499821793028202	0	)
(	1.5977653631284918	0.24773053909415133	0	)
(	1.6223463687150839	0.24174147732154025	0	)
(	1.6469273743016761	0.23210534880639336	0	)
(	1.6715083798882682	0.21896753035464311	0	)
(	1.6960893854748604	0.2025262275091515	0	)
(	1.7206703910614527	0.18302948429395682	0	)
(	1.7452513966480447	0.16077144106327512	0	)
(	1.769832402234637	0.1360878969117411	0	)
(	1.7944134078212293	0.10935124359421856	0	)
(	1.8189944134078213	0.08096484738529776	0	)
(	1.8435754189944136	0.051356963637353405	0	)
(	1.8681564245810058	0.020974275846036755	0	)
(	1.8927374301675979	-0.009724843303002597	0	)
(	1.9173184357541901	-0.04027724723800579	0	)
(	1.9418994413407822	-0.07022200282689026	0	)
(	1.9664804469273744	-0.09910734430967343	0	)
(	1.9910614525139667	-0.12649748892604548	0	)
(	2.015642458100559	-0.15197921141317347	0	)
(	2.040223463687151	-0.17516807818665625	0	)
(	2.064804469273743	-0.19571424715177374	0	)
(	2.0893854748603355	-0.21330774564537724	0	)
(	2.1139664804469276	-0.22768314688199273	0	)
(	2.1385474860335196	-0.2386235743522953	0	)
(	2.163128491620112	-0.24596397376101828	0	)
(	2.187709497206704	-0.24959360314175535	0	)
(	2.212290502793296	-0.2494577035811879	0	)
(	2.2368715083798882	-0.24555832534711913	0	)
(	2.2614525139664807	-0.23795429695682127	0	)
(	2.2860335195530728	-0.22676033765234938	0	)
(	2.310614525139665	-0.2121453266725869	0	)
(	2.3351955307262573	-0.19432975543289455	0	)
(	2.3597765363128493	-0.17358240105041214	0	)
(	2.3843575418994414	-0.15021627140033975	0	)
(	2.408938547486034	-0.12458388287867338	0	)
(	2.433519553072626	-0.09707194211410305	0	)
(	2.458100558659218	-0.06809551186415239	0	)
(	2.4826815642458104	-0.03809174911260752	0	)
(	2.5072625698324025	-0.007513309839297538	0	)
(	2.5318435754189945	0.023178480037909115	0	)
(	2.5564245810055866	0.05352058452134136	0	)
(	2.581005586592179	0.08305524319112395	0	)
(	2.605586592178771	0.11133687727202815	0	)
(	2.630167597765363	0.13793881192023422	0	)
(	2.6547486033519556	0.16245971331327413	0	)
(	2.6793296089385477	0.18452964342909844	0	)
(	2.7039106145251397	0.20381564116799247	0	)
(	2.728491620111732	0.22002674561696284	0	)
(	2.7530726256983242	0.23291838567240347	0	)
(	2.7776536312849163	0.24229606979639637	0	)
(	2.8022346368715088	0.24801832024060666	0	)
(	2.826815642458101	0.249998807470199	0	)
(	2.851396648044693	0.2482076525864876	0	)
(	2.8759776536312853	0.2426718780991364	0	)
(	2.9005586592178774	0.23347500024727294	0	)
(	2.9251396648044694	0.22075576902001914	0	)
(	2.949720670391062	0.20470607488529713	0	)
(	2.974301675977654	0.1855680538073422	0	)
(	2.998882681564246	0.1636304342284738	0	)
(	3.023463687150838	0.1392241811269127	0	)
(	3.0480446927374305	0.11271750286715815	0	)
(	3.0726256983240225	0.08451029617280016	0	)
(	3.0972067039106146	0.05502811302844011	0	)
(	3.121787709497207	0.024715740529922623	0	)
(	3.146368715083799	-0.005969509458641078	0	)
(	3.170949720670391	-0.03656469960452869	0	)
(	3.1955307262569836	-0.06660825127548049	0	)
(	3.2201117318435757	-0.0956469082105477	0	)
(	3.2446927374301677	-0.12324257463432173	0	)
(	3.26927374301676	-0.1489789246503637	0	)
(	3.2938547486033523	-0.17246768320030165	0	)
(	3.3184357541899443	-0.1933544838300221	0	)
(	3.3430167597765363	-0.2113242148889347	0	)
(	3.367597765363129	-0.22610577350614142	0	)
(	3.392178770949721	-0.23747615562196198	0	)
(	3.416759776536313	-0.24526382036999628	0	)
(	3.4413407821229054	-0.2493512780524931	0	)
(	3.4659217877094974	-0.24967686266517114	0	)
(	3.4905027932960895	-0.24623566223005355	0	)
(	3.515083798882682	-0.23907959290071168	0	)
(	3.539664804469274	-0.2283166157219265	0	)
(	3.564245810055866	-0.21410910786022377	0	)
(	3.5888268156424585	-0.1966714128779533	0	)
(	3.6134078212290506	-0.17626660700903704	0	)
(	3.6379888268156426	-0.1532025302224231	0	)
(	3.662569832402235	-0.12782714195117148	0	)
(	3.687150837988827	-0.10052327155360581	0	)
(	3.711731843575419	-0.07170284270444016	0	)
(	3.7363128491620117	-0.04180065885042353	0	)
(	3.7608938547486037	-0.011267843487083887	0	)
(	3.7854748603351958	0.019434965779235817	0	)
(	3.810055865921788	0.04984456670530245	0	)
(	3.8346368715083803	0.07950218057668079	0	)
(	3.8592178770949723	0.1079603736372281	0	)
(	3.8837988826815644	0.1347898073612873	0	)
(	3.908379888268157	0.1595857157296364	0	)
(	3.932960893854749	0.18197401178887668	0	)
(	3.957541899441341	0.2016169313667854	0	)
(	3.9821229050279334	0.21821812879892472	0	)
(	4.006703910614525	0.23152714778912253	0	)
(	4.031284916201118	0.24134319995355433	0	)
(	4.05586592178771	0.24751819404288777	0	)
(	4.080446927374302	0.24995897014171198	0	)
(	4.105027932960894	0.24862870513868257	0	)
(	4.129608938547486	0.24354746826356138	0	)
(	4.154189944134078	0.2347919183099632	0	)
(	4.178770949720671	0.22249414711170204	0	)
(	4.203351955307263	0.20683968672079361	0	)
(	4.227932960893855	0.18806471035209676	0	)
(	4.252513966480447	0.1664524693229489	0	)
(	4.277094972067039	0.1423290197423889	0	)
(	4.301675977653631	0.11605830341988878	0	)
(	4.326256983240224	0.08803665720613461	0	)
(	4.350837988826816	0.05868683360148416	0	)
(	4.375418994413408	0.028451622841001056	0	)
(	4.4	-0.002212827322600969	0	)
(	5.0	-0.002212827322600969	0	)
)
	polyLine 4 5 ((	-0.5	0.0	0.1	)
(	0.0	0.0	0.1	)
(	0.02458100558659218	0.03064895872875474	0.1	)
(	0.04916201117318436	0.0608355276379738	0.1	)
(	0.07374301675977654	0.09010429281706192	0.1	)
(	0.09832402234636872	0.11801368693027486	0.1	)
(	0.1229050279329609	0.1441426509843343	0.1	)
(	0.14748603351955308	0.16809698669405426	0.1	)
(	0.17206703910614526	0.18951530361012325	0.1	)
(	0.19664804469273744	0.20807447128686357	0.1	)
(	0.22122905027932963	0.22349449423507353	0.1	)
(	0.2458100558659218	0.23554273611329174	0.1	)
(	0.270391061452514	0.244037429428629	0.1	)
(	0.29497206703910617	0.24885041779757308	0.1	)
(	0.3195530726256983	0.24990908939526438	0.1	)
(	0.34413407821229053	0.24719747242398749	0.1	)
(	0.36871508379888274	0.24075647607394013	0.1	)
(	0.3932960893854749	0.23068327334099106	0.1	)
(	0.41787709497206704	0.21712983501263278	0.1	)
(	0.44245810055865925	0.2003006369393566	0.1	)
(	0.46703910614525146	0.1804495751810222	0.1	)
(	0.4916201117318436	0.15787613556829894	0.1	)
(	0.5162011173184358	0.13292087546762782	0.1	)
(	0.540782122905028	0.10596028591469235	0.1	)
(	0.5653631284916202	0.07740111162954309	0.1	)
(	0.5899441340782123	0.04767421460526302	0.1	)
(	0.6145251396648045	0.017228073848009152	0.1	)
(	0.6391061452513966	-0.013477980664489346	0.1	)
(	0.6636871508379889	-0.043980697729138166	0.1	)
(	0.6882681564245811	-0.07381989382180204	0.1	)
(	0.7128491620111732	-0.10254539572066007	0.1	)
(	0.7374301675977655	-0.12972383210772964	0.1	)
(	0.7620111731843576	-0.15494517168610727	0.1	)
(	0.7865921787709498	-0.17782890917470667	0.1	)
(	0.8111731843575419	-0.1980298058546109	0.1	)
(	0.8357541899441341	-0.2152430980614831	0.1	)
(	0.8603351955307263	-0.22920909504538353	0.1	)
(	0.8849162011173185	-0.2397170968317328	0.1	)
(	0.9094972067039107	-0.24660857297606584	0.1	)
(	0.9340782122905029	-0.24977955425584175	0.1	)
(	0.9586592178770951	-0.2491822012167194	0.1	)
(	0.9832402234636872	-0.24482552590920295	0.1	)
(	1.0078212290502795	-0.23677525592707596	0.1	)
(	1.0324022346368715	-0.2251528427988291	0.1	)
(	1.0569832402234638	-0.21013362969212074	0.1	)
(	1.081564245810056	-0.19194420607445767	0.1	)
(	1.106145251396648	-0.1708589892393756	0.1	)
(	1.1307262569832404	-0.1471960842714067	0.1	)
(	1.1553072625698324	-0.12131248490905526	0.1	)
(	1.1798882681564247	-0.09359868770863149	0.1	)
(	1.204469273743017	-0.0644728007631241	0.1	)
(	1.229050279329609	-0.034374235855743764	0.1	)
(	1.2536312849162012	-0.003757079212354161	0.1	)
(	1.2782122905027933	0.026916759134135035	0.1	)
(	1.3027932960893855	0.057184514014342075	0.1	)
(	1.3273743016759778	0.08658954669412018	0.1	)
(	1.3519553072625698	0.1146882340189413	0.1	)
(	1.3765363128491621	0.14105666119691054	0.1	)
(	1.4011173184357544	0.1652970172487975	0.1	)
(	1.4256983240223464	0.1870435966392361	0.1	)
(	1.4502793296089387	0.2059683165446353	0.1	)
(	1.474860335195531	0.22178566652076553	0.1	)
(	1.499441340782123	0.23425701589616638	0.1	)
(	1.5240223463687153	0.24319421390728063	0.1	)
(	1.5486033519553073	0.24846242826136739	0.1	)
(	1.5731843575418996	0.2499821793028202	0.1	)
(	1.5977653631284918	0.24773053909415133	0.1	)
(	1.6223463687150839	0.24174147732154025	0.1	)
(	1.6469273743016761	0.23210534880639336	0.1	)
(	1.6715083798882682	0.21896753035464311	0.1	)
(	1.6960893854748604	0.2025262275091515	0.1	)
(	1.7206703910614527	0.18302948429395682	0.1	)
(	1.7452513966480447	0.16077144106327512	0.1	)
(	1.769832402234637	0.1360878969117411	0.1	)
(	1.7944134078212293	0.10935124359421856	0.1	)
(	1.8189944134078213	0.08096484738529776	0.1	)
(	1.8435754189944136	0.051356963637353405	0.1	)
(	1.8681564245810058	0.020974275846036755	0.1	)
(	1.8927374301675979	-0.009724843303002597	0.1	)
(	1.9173184357541901	-0.04027724723800579	0.1	)
(	1.9418994413407822	-0.07022200282689026	0.1	)
(	1.9664804469273744	-0.09910734430967343	0.1	)
(	1.9910614525139667	-0.12649748892604548	0.1	)
(	2.015642458100559	-0.15197921141317347	0.1	)
(	2.040223463687151	-0.17516807818665625	0.1	)
(	2.064804469273743	-0.19571424715177374	0.1	)
(	2.0893854748603355	-0.21330774564537724	0.1	)
(	2.1139664804469276	-0.22768314688199273	0.1	)
(	2.1385474860335196	-0.2386235743522953	0.1	)
(	2.163128491620112	-0.24596397376101828	0.1	)
(	2.187709497206704	-0.24959360314175535	0.1	)
(	2.212290502793296	-0.2494577035811879	0.1	)
(	2.2368715083798882	-0.24555832534711913	0.1	)
(	2.2614525139664807	-0.23795429695682127	0.1	)
(	2.2860335195530728	-0.22676033765234938	0.1	)
(	2.310614525139665	-0.2121453266725869	0.1	)
(	2.3351955307262573	-0.19432975543289455	0.1	)
(	2.3597765363128493	-0.17358240105041214	0.1	)
(	2.3843575418994414	-0.15021627140033975	0.1	)
(	2.408938547486034	-0.12458388287867338	0.1	)
(	2.433519553072626	-0.09707194211410305	0.1	)
(	2.458100558659218	-0.06809551186415239	0.1	)
(	2.4826815642458104	-0.03809174911260752	0.1	)
(	2.5072625698324025	-0.007513309839297538	0.1	)
(	2.5318435754189945	0.023178480037909115	0.1	)
(	2.5564245810055866	0.05352058452134136	0.1	)
(	2.581005586592179	0.08305524319112395	0.1	)
(	2.605586592178771	0.11133687727202815	0.1	)
(	2.630167597765363	0.13793881192023422	0.1	)
(	2.6547486033519556	0.16245971331327413	0.1	)
(	2.6793296089385477	0.18452964342909844	0.1	)
(	2.7039106145251397	0.20381564116799247	0.1	)
(	2.728491620111732	0.22002674561696284	0.1	)
(	2.7530726256983242	0.23291838567240347	0.1	)
(	2.7776536312849163	0.24229606979639637	0.1	)
(	2.8022346368715088	0.24801832024060666	0.1	)
(	2.826815642458101	0.249998807470199	0.1	)
(	2.851396648044693	0.2482076525864876	0.1	)
(	2.8759776536312853	0.2426718780991364	0.1	)
(	2.9005586592178774	0.23347500024727294	0.1	)
(	2.9251396648044694	0.22075576902001914	0.1	)
(	2.949720670391062	0.20470607488529713	0.1	)
(	2.974301675977654	0.1855680538073422	0.1	)
(	2.998882681564246	0.1636304342284738	0.1	)
(	3.023463687150838	0.1392241811269127	0.1	)
(	3.0480446927374305	0.11271750286715815	0.1	)
(	3.0726256983240225	0.08451029617280016	0.1	)
(	3.0972067039106146	0.05502811302844011	0.1	)
(	3.121787709497207	0.024715740529922623	0.1	)
(	3.146368715083799	-0.005969509458641078	0.1	)
(	3.170949720670391	-0.03656469960452869	0.1	)
(	3.1955307262569836	-0.06660825127548049	0.1	)
(	3.2201117318435757	-0.0956469082105477	0.1	)
(	3.2446927374301677	-0.12324257463432173	0.1	)
(	3.26927374301676	-0.1489789246503637	0.1	)
(	3.2938547486033523	-0.17246768320030165	0.1	)
(	3.3184357541899443	-0.1933544838300221	0.1	)
(	3.3430167597765363	-0.2113242148889347	0.1	)
(	3.367597765363129	-0.22610577350614142	0.1	)
(	3.392178770949721	-0.23747615562196198	0.1	)
(	3.416759776536313	-0.24526382036999628	0.1	)
(	3.4413407821229054	-0.2493512780524931	0.1	)
(	3.4659217877094974	-0.24967686266517114	0.1	)
(	3.4905027932960895	-0.24623566223005355	0.1	)
(	3.515083798882682	-0.23907959290071168	0.1	)
(	3.539664804469274	-0.2283166157219265	0.1	)
(	3.564245810055866	-0.21410910786022377	0.1	)
(	3.5888268156424585	-0.1966714128779533	0.1	)
(	3.6134078212290506	-0.17626660700903704	0.1	)
(	3.6379888268156426	-0.1532025302224231	0.1	)
(	3.662569832402235	-0.12782714195117148	0.1	)
(	3.687150837988827	-0.10052327155360581	0.1	)
(	3.711731843575419	-0.07170284270444016	0.1	)
(	3.7363128491620117	-0.04180065885042353	0.1	)
(	3.7608938547486037	-0.011267843487083887	0.1	)
(	3.7854748603351958	0.019434965779235817	0.1	)
(	3.810055865921788	0.04984456670530245	0.1	)
(	3.8346368715083803	0.07950218057668079	0.1	)
(	3.8592178770949723	0.1079603736372281	0.1	)
(	3.8837988826815644	0.1347898073612873	0.1	)
(	3.908379888268157	0.1595857157296364	0.1	)
(	3.932960893854749	0.18197401178887668	0.1	)
(	3.957541899441341	0.2016169313667854	0.1	)
(	3.9821229050279334	0.21821812879892472	0.1	)
(	4.006703910614525	0.23152714778912253	0.1	)
(	4.031284916201118	0.24134319995355433	0.1	)
(	4.05586592178771	0.24751819404288777	0.1	)
(	4.080446927374302	0.24995897014171198	0.1	)
(	4.105027932960894	0.24862870513868257	0.1	)
(	4.129608938547486	0.24354746826356138	0.1	)
(	4.154189944134078	0.2347919183099632	0.1	)
(	4.178770949720671	0.22249414711170204	0.1	)
(	4.203351955307263	0.20683968672079361	0.1	)
(	4.227932960893855	0.18806471035209676	0.1	)
(	4.252513966480447	0.1664524693229489	0.1	)
(	4.277094972067039	0.1423290197423889	0.1	)
(	4.301675977653631	0.11605830341988878	0.1	)
(	4.326256983240224	0.08803665720613461	0.1	)
(	4.350837988826816	0.05868683360148416	0.1	)
(	4.375418994413408	0.028451622841001056	0.1	)
(	4.4	-0.002212827322600969	0.1	)
(	5.0	-0.002212827322600969	0.1	)
)
	polyLine 3 2 ((	-0.5	0.5	0	)
(	0.0	0.5	0	)
(	0.02458100558659218	0.5306489587287547	0	)
(	0.04916201117318436	0.5608355276379738	0	)
(	0.07374301675977654	0.5901042928170619	0	)
(	0.09832402234636872	0.6180136869302748	0	)
(	0.1229050279329609	0.6441426509843343	0	)
(	0.14748603351955308	0.6680969866940543	0	)
(	0.17206703910614526	0.6895153036101233	0	)
(	0.19664804469273744	0.7080744712868636	0	)
(	0.22122905027932963	0.7234944942350735	0	)
(	0.2458100558659218	0.7355427361132918	0	)
(	0.270391061452514	0.7440374294286289	0	)
(	0.29497206703910617	0.7488504177975731	0	)
(	0.3195530726256983	0.7499090893952643	0	)
(	0.34413407821229053	0.7471974724239875	0	)
(	0.36871508379888274	0.7407564760739401	0	)
(	0.3932960893854749	0.730683273340991	0	)
(	0.41787709497206704	0.7171298350126327	0	)
(	0.44245810055865925	0.7003006369393566	0	)
(	0.46703910614525146	0.6804495751810222	0	)
(	0.4916201117318436	0.6578761355682989	0	)
(	0.5162011173184358	0.6329208754676279	0	)
(	0.540782122905028	0.6059602859146923	0	)
(	0.5653631284916202	0.5774011116295431	0	)
(	0.5899441340782123	0.547674214605263	0	)
(	0.6145251396648045	0.5172280738480092	0	)
(	0.6391061452513966	0.48652201933551065	0	)
(	0.6636871508379889	0.45601930227086185	0	)
(	0.6882681564245811	0.42618010617819796	0	)
(	0.7128491620111732	0.39745460427933993	0	)
(	0.7374301675977655	0.37027616789227036	0	)
(	0.7620111731843576	0.3450548283138927	0	)
(	0.7865921787709498	0.3221710908252933	0	)
(	0.8111731843575419	0.30197019414538906	0	)
(	0.8357541899441341	0.2847569019385169	0	)
(	0.8603351955307263	0.27079090495461644	0	)
(	0.8849162011173185	0.2602829031682672	0	)
(	0.9094972067039107	0.25339142702393413	0	)
(	0.9340782122905029	0.25022044574415825	0	)
(	0.9586592178770951	0.2508177987832806	0	)
(	0.9832402234636872	0.2551744740907971	0	)
(	1.0078212290502795	0.26322474407292407	0	)
(	1.0324022346368715	0.2748471572011709	0	)
(	1.0569832402234638	0.28986637030787926	0	)
(	1.081564245810056	0.30805579392554233	0	)
(	1.106145251396648	0.3291410107606244	0	)
(	1.1307262569832404	0.35280391572859326	0	)
(	1.1553072625698324	0.3786875150909447	0	)
(	1.1798882681564247	0.4064013122913685	0	)
(	1.204469273743017	0.4355271992368759	0	)
(	1.229050279329609	0.4656257641442562	0	)
(	1.2536312849162012	0.4962429207876458	0	)
(	1.2782122905027933	0.526916759134135	0	)
(	1.3027932960893855	0.5571845140143421	0	)
(	1.3273743016759778	0.5865895466941202	0	)
(	1.3519553072625698	0.6146882340189413	0	)
(	1.3765363128491621	0.6410566611969105	0	)
(	1.4011173184357544	0.6652970172487975	0	)
(	1.4256983240223464	0.6870435966392361	0	)
(	1.4502793296089387	0.7059683165446353	0	)
(	1.474860335195531	0.7217856665207656	0	)
(	1.499441340782123	0.7342570158961663	0	)
(	1.5240223463687153	0.7431942139072807	0	)
(	1.5486033519553073	0.7484624282613674	0	)
(	1.5731843575418996	0.7499821793028202	0	)
(	1.5977653631284918	0.7477305390941513	0	)
(	1.6223463687150839	0.7417414773215403	0	)
(	1.6469273743016761	0.7321053488063933	0	)
(	1.6715083798882682	0.7189675303546431	0	)
(	1.6960893854748604	0.7025262275091515	0	)
(	1.7206703910614527	0.6830294842939568	0	)
(	1.7452513966480447	0.6607714410632751	0	)
(	1.769832402234637	0.6360878969117412	0	)
(	1.7944134078212293	0.6093512435942186	0	)
(	1.8189944134078213	0.5809648473852977	0	)
(	1.8435754189944136	0.5513569636373534	0	)
(	1.8681564245810058	0.5209742758460367	0	)
(	1.8927374301675979	0.4902751566969974	0	)
(	1.9173184357541901	0.4597227527619942	0	)
(	1.9418994413407822	0.4297779971731097	0	)
(	1.9664804469273744	0.40089265569032656	0	)
(	1.9910614525139667	0.3735025110739545	0	)
(	2.015642458100559	0.3480207885868265	0	)
(	2.040223463687151	0.32483192181334375	0	)
(	2.064804469273743	0.30428575284822623	0	)
(	2.0893854748603355	0.28669225435462276	0	)
(	2.1139664804469276	0.27231685311800724	0	)
(	2.1385474860335196	0.2613764256477047	0	)
(	2.163128491620112	0.2540360262389817	0	)
(	2.187709497206704	0.2504063968582446	0	)
(	2.212290502793296	0.2505422964188121	0	)
(	2.2368715083798882	0.25444167465288087	0	)
(	2.2614525139664807	0.26204570304317876	0	)
(	2.2860335195530728	0.2732396623476506	0	)
(	2.310614525139665	0.2878546733274131	0	)
(	2.3351955307262573	0.30567024456710545	0	)
(	2.3597765363128493	0.3264175989495879	0	)
(	2.3843575418994414	0.3497837285996602	0	)
(	2.408938547486034	0.3754161171213266	0	)
(	2.433519553072626	0.4029280578858969	0	)
(	2.458100558659218	0.4319044881358476	0	)
(	2.4826815642458104	0.46190825088739246	0	)
(	2.5072625698324025	0.49248669016070246	0	)
(	2.5318435754189945	0.5231784800379091	0	)
(	2.5564245810055866	0.5535205845213413	0	)
(	2.581005586592179	0.583055243191124	0	)
(	2.605586592178771	0.6113368772720281	0	)
(	2.630167597765363	0.6379388119202343	0	)
(	2.6547486033519556	0.6624597133132741	0	)
(	2.6793296089385477	0.6845296434290984	0	)
(	2.7039106145251397	0.7038156411679924	0	)
(	2.728491620111732	0.7200267456169629	0	)
(	2.7530726256983242	0.7329183856724035	0	)
(	2.7776536312849163	0.7422960697963964	0	)
(	2.8022346368715088	0.7480183202406067	0	)
(	2.826815642458101	0.749998807470199	0	)
(	2.851396648044693	0.7482076525864876	0	)
(	2.8759776536312853	0.7426718780991364	0	)
(	2.9005586592178774	0.733475000247273	0	)
(	2.9251396648044694	0.7207557690200191	0	)
(	2.949720670391062	0.7047060748852971	0	)
(	2.974301675977654	0.6855680538073422	0	)
(	2.998882681564246	0.6636304342284738	0	)
(	3.023463687150838	0.6392241811269127	0	)
(	3.0480446927374305	0.6127175028671581	0	)
(	3.0726256983240225	0.5845102961728001	0	)
(	3.0972067039106146	0.5550281130284401	0	)
(	3.121787709497207	0.5247157405299226	0	)
(	3.146368715083799	0.49403049054135895	0	)
(	3.170949720670391	0.4634353003954713	0	)
(	3.1955307262569836	0.4333917487245195	0	)
(	3.2201117318435757	0.40435309178945233	0	)
(	3.2446927374301677	0.37675742536567824	0	)
(	3.26927374301676	0.35102107534963634	0	)
(	3.2938547486033523	0.32753231679969835	0	)
(	3.3184357541899443	0.3066455161699779	0	)
(	3.3430167597765363	0.2886757851110653	0	)
(	3.367597765363129	0.2738942264938586	0	)
(	3.392178770949721	0.262523844378038	0	)
(	3.416759776536313	0.2547361796300037	0	)
(	3.4413407821229054	0.25064872194750687	0	)
(	3.4659217877094974	0.25032313733482886	0	)
(	3.4905027932960895	0.25376433776994645	0	)
(	3.515083798882682	0.2609204070992883	0	)
(	3.539664804469274	0.2716833842780735	0	)
(	3.564245810055866	0.28589089213977625	0	)
(	3.5888268156424585	0.3033285871220467	0	)
(	3.6134078212290506	0.32373339299096293	0	)
(	3.6379888268156426	0.34679746977757686	0	)
(	3.662569832402235	0.3721728580488285	0	)
(	3.687150837988827	0.3994767284463942	0	)
(	3.711731843575419	0.42829715729555984	0	)
(	3.7363128491620117	0.4581993411495765	0	)
(	3.7608938547486037	0.4887321565129161	0	)
(	3.7854748603351958	0.5194349657792359	0	)
(	3.810055865921788	0.5498445667053025	0	)
(	3.8346368715083803	0.5795021805766808	0	)
(	3.8592178770949723	0.6079603736372281	0	)
(	3.8837988826815644	0.6347898073612873	0	)
(	3.908379888268157	0.6595857157296364	0	)
(	3.932960893854749	0.6819740117888766	0	)
(	3.957541899441341	0.7016169313667854	0	)
(	3.9821229050279334	0.7182181287989247	0	)
(	4.006703910614525	0.7315271477891225	0	)
(	4.031284916201118	0.7413431999535544	0	)
(	4.05586592178771	0.7475181940428878	0	)
(	4.080446927374302	0.749958970141712	0	)
(	4.105027932960894	0.7486287051386826	0	)
(	4.129608938547486	0.7435474682635614	0	)
(	4.154189944134078	0.7347919183099632	0	)
(	4.178770949720671	0.722494147111702	0	)
(	4.203351955307263	0.7068396867207936	0	)
(	4.227932960893855	0.6880647103520967	0	)
(	4.252513966480447	0.6664524693229489	0	)
(	4.277094972067039	0.6423290197423889	0	)
(	4.301675977653631	0.6160583034198888	0	)
(	4.326256983240224	0.5880366572061346	0	)
(	4.350837988826816	0.5586868336014842	0	)
(	4.375418994413408	0.528451622841001	0	)
(	4.4	0.497787172677399	0	)
(	5.0	0.497787172677399	0	)
)
	polyLine 7 6 ((	-0.5	0.5	0.1	)
(	0.0	0.5	0.1	)
(	0.02458100558659218	0.5306489587287547	0.1	)
(	0.04916201117318436	0.5608355276379738	0.1	)
(	0.07374301675977654	0.5901042928170619	0.1	)
(	0.09832402234636872	0.6180136869302748	0.1	)
(	0.1229050279329609	0.6441426509843343	0.1	)
(	0.14748603351955308	0.6680969866940543	0.1	)
(	0.17206703910614526	0.6895153036101233	0.1	)
(	0.19664804469273744	0.7080744712868636	0.1	)
(	0.22122905027932963	0.7234944942350735	0.1	)
(	0.2458100558659218	0.7355427361132918	0.1	)
(	0.270391061452514	0.7440374294286289	0.1	)
(	0.29497206703910617	0.7488504177975731	0.1	)
(	0.3195530726256983	0.7499090893952643	0.1	)
(	0.34413407821229053	0.7471974724239875	0.1	)
(	0.36871508379888274	0.7407564760739401	0.1	)
(	0.3932960893854749	0.730683273340991	0.1	)
(	0.41787709497206704	0.7171298350126327	0.1	)
(	0.44245810055865925	0.7003006369393566	0.1	)
(	0.46703910614525146	0.6804495751810222	0.1	)
(	0.4916201117318436	0.6578761355682989	0.1	)
(	0.5162011173184358	0.6329208754676279	0.1	)
(	0.540782122905028	0.6059602859146923	0.1	)
(	0.5653631284916202	0.5774011116295431	0.1	)
(	0.5899441340782123	0.547674214605263	0.1	)
(	0.6145251396648045	0.5172280738480092	0.1	)
(	0.6391061452513966	0.48652201933551065	0.1	)
(	0.6636871508379889	0.45601930227086185	0.1	)
(	0.6882681564245811	0.42618010617819796	0.1	)
(	0.7128491620111732	0.39745460427933993	0.1	)
(	0.7374301675977655	0.37027616789227036	0.1	)
(	0.7620111731843576	0.3450548283138927	0.1	)
(	0.7865921787709498	0.3221710908252933	0.1	)
(	0.8111731843575419	0.30197019414538906	0.1	)
(	0.8357541899441341	0.2847569019385169	0.1	)
(	0.8603351955307263	0.27079090495461644	0.1	)
(	0.8849162011173185	0.2602829031682672	0.1	)
(	0.9094972067039107	0.25339142702393413	0.1	)
(	0.9340782122905029	0.25022044574415825	0.1	)
(	0.9586592178770951	0.2508177987832806	0.1	)
(	0.9832402234636872	0.2551744740907971	0.1	)
(	1.0078212290502795	0.26322474407292407	0.1	)
(	1.0324022346368715	0.2748471572011709	0.1	)
(	1.0569832402234638	0.28986637030787926	0.1	)
(	1.081564245810056	0.30805579392554233	0.1	)
(	1.106145251396648	0.3291410107606244	0.1	)
(	1.1307262569832404	0.35280391572859326	0.1	)
(	1.1553072625698324	0.3786875150909447	0.1	)
(	1.1798882681564247	0.4064013122913685	0.1	)
(	1.204469273743017	0.4355271992368759	0.1	)
(	1.229050279329609	0.4656257641442562	0.1	)
(	1.2536312849162012	0.4962429207876458	0.1	)
(	1.2782122905027933	0.526916759134135	0.1	)
(	1.3027932960893855	0.5571845140143421	0.1	)
(	1.3273743016759778	0.5865895466941202	0.1	)
(	1.3519553072625698	0.6146882340189413	0.1	)
(	1.3765363128491621	0.6410566611969105	0.1	)
(	1.4011173184357544	0.6652970172487975	0.1	)
(	1.4256983240223464	0.6870435966392361	0.1	)
(	1.4502793296089387	0.7059683165446353	0.1	)
(	1.474860335195531	0.7217856665207656	0.1	)
(	1.499441340782123	0.7342570158961663	0.1	)
(	1.5240223463687153	0.7431942139072807	0.1	)
(	1.5486033519553073	0.7484624282613674	0.1	)
(	1.5731843575418996	0.7499821793028202	0.1	)
(	1.5977653631284918	0.7477305390941513	0.1	)
(	1.6223463687150839	0.7417414773215403	0.1	)
(	1.6469273743016761	0.7321053488063933	0.1	)
(	1.6715083798882682	0.7189675303546431	0.1	)
(	1.6960893854748604	0.7025262275091515	0.1	)
(	1.7206703910614527	0.6830294842939568	0.1	)
(	1.7452513966480447	0.6607714410632751	0.1	)
(	1.769832402234637	0.6360878969117412	0.1	)
(	1.7944134078212293	0.6093512435942186	0.1	)
(	1.8189944134078213	0.5809648473852977	0.1	)
(	1.8435754189944136	0.5513569636373534	0.1	)
(	1.8681564245810058	0.5209742758460367	0.1	)
(	1.8927374301675979	0.4902751566969974	0.1	)
(	1.9173184357541901	0.4597227527619942	0.1	)
(	1.9418994413407822	0.4297779971731097	0.1	)
(	1.9664804469273744	0.40089265569032656	0.1	)
(	1.9910614525139667	0.3735025110739545	0.1	)
(	2.015642458100559	0.3480207885868265	0.1	)
(	2.040223463687151	0.32483192181334375	0.1	)
(	2.064804469273743	0.30428575284822623	0.1	)
(	2.0893854748603355	0.28669225435462276	0.1	)
(	2.1139664804469276	0.27231685311800724	0.1	)
(	2.1385474860335196	0.2613764256477047	0.1	)
(	2.163128491620112	0.2540360262389817	0.1	)
(	2.187709497206704	0.2504063968582446	0.1	)
(	2.212290502793296	0.2505422964188121	0.1	)